%nprocshared=64
%mem=16GB
# opt=(calcfc,ts,modredundant,noeigentest) freq b3lyp/gen
empiricaldispersion=gd3 pseudo=read

opt freq from SI

0 1
8       -1.773052000     -1.510875000      1.256415000
8       -1.582759000     -1.648278000     -1.017180000
6       -2.472141000     -2.735819000      0.896985000
6       -1.990605000     -2.976067000     -0.585925000
6       -2.060170000     -3.817791000      1.894008000
6       -3.971381000     -2.451750000      1.028284000
6       -0.749545000     -3.871353000     -0.685927000
6       -3.076518000     -3.467775000     -1.540132000
5       -1.352407000     -0.871146000      0.100445000
29      -0.127125000      0.706471000      0.193006000
15       1.928493000      0.087942000     -0.225145000
6       -1.444760000      3.756768000     -0.390559000
6       -1.968368000      1.258580000     -0.173375000
6       -1.202432000      2.316484000     -0.181079000
1       -0.974879000     -3.934038000      1.936926000
1       -2.506466000     -4.783514000      1.630076000
1       -2.410951000     -3.543349000      2.894412000
1       -4.291219000     -1.663342000      0.346789000
1       -4.179149000     -2.115250000      2.048831000
1       -4.564639000     -3.351926000      0.832608000
1       -0.385993000     -3.864953000     -1.715607000
1       -0.972365000     -4.904468000     -0.398332000
1        0.059603000     -3.492900000     -0.054307000
1       -2.655646000     -3.579281000     -2.544895000
1       -3.904403000     -2.757653000     -1.596180000
1       -3.465144000     -4.442330000     -1.222235000
1       -0.859178000      4.105990000     -1.261816000
1       -1.063121000      4.325832000      0.479371000
6        2.079763000     -1.421366000     -1.265905000
6        2.884510000     -2.527420000     -0.965049000
6        1.312709000     -1.430809000     -2.442994000
6        2.935692000     -3.617861000     -1.839208000
1        3.473692000     -2.543168000     -0.053712000
6        1.387919000     -2.505661000     -3.325171000
1        0.644602000     -0.600178000     -2.652661000
6        2.200092000     -3.603881000     -3.024659000
1        3.558644000     -4.473923000     -1.593493000
1        0.795858000     -2.496413000     -4.236334000
1        2.248650000     -4.448770000     -3.706441000
6        2.890208000      1.330358000     -1.197471000
6        2.553591000      2.680710000     -1.023204000
6        3.912348000      0.987097000     -2.095746000
6        3.252275000      3.674809000     -1.709483000
1        1.714485000      2.931817000     -0.377484000
6        4.603279000      1.983023000     -2.787601000
1        4.156695000     -0.057751000     -2.267367000
6        4.279902000      3.328035000     -2.589852000
1        2.983347000      4.718448000     -1.568487000
1        5.390272000      1.708460000     -3.485224000
1        4.817553000      4.101407000     -3.132138000
8       -2.827127000      4.055154000     -0.585211000
6       -3.396475000      0.935421000     -0.308353000
6       -3.901861000      0.337859000     -1.474944000
6       -4.291103000      1.261079000      0.724177000
6       -5.267100000      0.084787000     -1.608954000
1       -3.209601000      0.061709000     -2.262952000
6       -5.654628000      1.001190000      0.591565000
1       -3.904516000      1.726880000      1.625171000
6       -6.149262000      0.411798000     -0.575003000
1       -5.642323000     -0.371364000     -2.522001000
1       -6.333653000      1.259653000      1.400444000
1       -7.212148000      0.208642000     -0.677055000
6       -3.060584000      5.427593000     -0.790520000
1       -4.137839000      5.558487000     -0.928638000
1       -2.737185000      6.037213000      0.072389000
1       -2.539581000      5.807347000     -1.687295000
6        0.980824000     -0.328134000      2.915988000
1        0.425310000     -1.144056000      2.440941000
1        0.900850000     -0.475180000      4.008021000
7        0.297482000      0.919522000      2.524521000
6       -1.040521000      0.967824000      3.125949000
1       -1.584521000      0.057844000      2.872184000
1       -0.989899000      1.077831000      4.224968000
1       -1.581406000      1.817750000      2.701433000
6        1.042895000      2.133256000      2.861725000
1        0.471949000      2.993892000      2.502573000
1        1.208793000      2.238721000      3.949534000
1        2.012560000      2.137508000      2.359499000
6        2.992023000     -0.235747000      1.255731000
6        2.457602000     -0.398022000      2.557288000
6        4.384241000     -0.305626000      1.075060000
6        3.350662000     -0.639517000      3.612401000
6        5.250933000     -0.555659000      2.136815000
1        4.800005000     -0.156966000      0.084115000
6        4.727441000     -0.728487000      3.416382000
1        2.950054000     -0.753174000      4.616429000
1        6.322221000     -0.607193000      1.963335000
1        5.384352000     -0.917579000      4.261066000

B 9 14

-C H P B N O 0
6-31g(d)
****
-Cu 0
sdd
F 1 1.0
3.525 1.0
****

Cu
sdd
























































