%nprocshared=64
%mem=16GB
# opt=(calcfc,ts,modredundant,noeigentest) freq b3lyp/gen
empiricaldispersion=gd3 pseudo=read

opt freq from SI

0 1
8       -1.150357000     -2.764419000      1.013924000
8       -0.721579000     -2.583574000     -1.225119000
6       -1.040937000     -4.132954000      0.528652000
6       -0.325566000     -3.935042000     -0.857418000
6       -0.248743000     -4.937858000      1.556586000
6       -2.461008000     -4.700251000      0.409964000
6        1.205077000     -3.945065000     -0.748496000
6       -0.779425000     -4.885440000     -1.961591000
5       -1.003381000     -1.891139000     -0.058817000
29      -0.471521000      0.044540000      0.204229000
15       1.601538000      0.568504000     -0.141501000
6       -3.571855000     -1.278624000     -0.348190000
6       -2.184741000      0.904621000     -0.293295000
6       -2.355465000     -0.393607000     -0.234847000
1        0.708612000     -4.463500000      1.782209000
1       -0.060269000     -5.955648000      1.195597000
1       -0.819922000     -5.006719000      2.488380000
1       -3.046624000     -4.157541000     -0.335736000
1       -2.964078000     -4.599483000      1.376659000
1       -2.444324000     -5.760656000      0.135403000
1        1.633469000     -3.626149000     -1.700411000
1        1.582432000     -4.945376000     -0.511671000
1        1.550835000     -3.245132000      0.017661000
1       -0.240792000     -4.653516000     -2.885813000
1       -1.848677000     -4.786571000     -2.161180000
1       -0.565239000     -5.926307000     -1.692140000
1       -3.661298000     -1.919986000      0.544630000
1       -3.476306000     -1.951433000     -1.220101000
6        2.603167000     -0.574701000     -1.175288000
6        3.819625000     -1.148367000     -0.784831000
6        2.062791000     -0.901361000     -2.431067000
6        4.492832000     -2.022432000     -1.643445000
1        4.244200000     -0.914783000      0.186416000
6        2.747772000     -1.753822000     -3.294081000
1        1.097609000     -0.495582000     -2.722215000
6        3.966254000     -2.317730000     -2.901691000
1        5.434024000     -2.465671000     -1.328831000
1        2.322348000     -1.991180000     -4.265461000
1        4.496306000     -2.991106000     -3.569938000
6        1.756653000      2.172305000     -1.044975000
6        0.731288000      3.110820000     -0.856163000
6        2.823715000      2.479900000     -1.902288000
6        0.786789000      4.351128000     -1.492285000
1       -0.128722000      2.841117000     -0.249344000
6        2.873234000      3.719861000     -2.542151000
1        3.605205000      1.747116000     -2.084381000
6        1.859341000      4.658599000     -2.333101000
1       -0.023743000      5.059847000     -1.347530000
1        3.700266000      3.950012000     -3.208898000
1        1.898106000      5.620483000     -2.837795000
8       -4.722983000     -0.466295000     -0.484261000
6       -2.933545000      2.132135000     -0.416348000
6       -3.885085000      2.519564000      0.553359000
6       -2.652073000      3.042806000     -1.458881000
6       -4.514644000      3.760519000      0.484456000
1       -4.135052000      1.821034000      1.345830000
6       -3.303941000      4.271857000     -1.535628000
1       -1.910724000      2.769342000     -2.204254000
6       -4.232572000      4.647113000     -0.559661000
1       -5.243139000      4.033221000      1.245275000
1       -3.077357000      4.946296000     -2.358871000
1       -4.728479000      5.612764000     -0.612005000
6       -5.903215000     -1.225610000     -0.605167000
1       -6.730830000     -0.517806000     -0.703324000
1       -5.884748000     -1.878589000     -1.494706000
1       -6.078504000     -1.860702000      0.280862000
6        0.846038000     -0.276577000      2.972899000
1        0.853247000     -1.268938000      2.506348000
1        0.796215000     -0.433150000      4.065089000
7       -0.386279000      0.387077000      2.505168000
6       -1.558344000     -0.307784000      3.052635000
1       -1.496660000     -1.369966000      2.812875000
1       -1.633327000     -0.178784000      4.147712000
1       -2.456957000      0.094656000      2.578297000
6       -0.454392000      1.816212000      2.826988000
1       -1.379767000      2.217178000      2.404747000
1       -0.441565000      2.001076000      3.916162000
1        0.383835000      2.348377000      2.372643000
6        2.594821000      0.849709000      1.395766000
6        2.146897000      0.456624000      2.680031000
6        3.826395000      1.515693000      1.274653000
6        2.965043000      0.747099000      3.782659000
6        4.628693000      1.780805000      2.382091000
1        4.160557000      1.839940000      0.294552000
6        4.193058000      1.391478000      3.647280000
1        2.622989000      0.460989000      4.773946000
1        5.577462000      2.294725000      2.255274000
1        4.797067000      1.597596000      4.526691000

B 9 14

-C H P B O N 0
6-31g(d)
****
-Cu 0
sdd
F 1 1.0
3.525 1.0
****

Cu
sdd
























































