%nprocshared=32
%mem=16GB
# opt=(modredundant,maxcycle=25) freq b3lyp/gen empiricaldispersion=gd3 pseudo=read

opt freq from SI

0 1
8       -2.850389000      0.018922000     -0.960834000
8       -3.331260000     -0.529358000      1.196297000
6       -4.257548000     -0.336045000     -0.959930000
6       -4.612068000     -0.259115000      0.565390000
6       -5.001571000      0.655850000     -1.851383000
6       -4.359020000     -1.753868000     -1.537124000
6       -5.033624000      1.146737000      1.015684000
6       -5.622275000     -1.294622000      1.051372000
5       -2.306727000     -0.209174000      0.305246000
29      -0.316540000     -0.087707000      0.682296000
15       0.391017000      1.423356000     -1.101116000
6       -1.532298000      0.839274000      3.361954000
6        0.916840000      0.351303000      2.451187000
6       -0.307757000      0.490574000      2.621435000
1       -4.783050000      1.687278000     -1.565939000
1       -6.085000000      0.493211000     -1.803063000
1       -4.683109000      0.524510000     -2.890876000
1       -3.801124000     -2.468929000     -0.925352000
1       -3.919411000     -1.759246000     -2.540012000
1       -5.399056000     -2.089295000     -1.615135000
1       -5.059760000      1.174711000      2.109748000
1       -6.024914000      1.417728000      0.636217000
1       -4.311916000      1.894333000      0.672747000
1       -5.788035000     -1.171442000      2.126792000
1       -5.261935000     -2.311789000      0.881126000
1       -6.584971000     -1.172768000      0.540750000
1       -2.223073000     -0.016506000      3.347810000
1       -2.054024000      1.658227000      2.836635000
6       -0.818691000      2.758856000     -1.475196000
6       -0.823582000      3.471052000     -2.684621000
6       -1.773908000      3.071681000     -0.499061000
6       -1.778670000      4.460737000     -2.919436000
1       -0.073165000      3.258773000     -3.442181000
6       -2.725238000      4.067753000     -0.728667000
1       -1.775247000      2.510608000      0.431249000
6       -2.733338000      4.758343000     -1.942266000
1       -1.776760000      5.002213000     -3.861918000
1       -3.461145000      4.299228000      0.037128000
1       -3.477076000      5.529281000     -2.126191000
6        2.018493000      2.281751000     -1.220845000
6        3.187647000      1.522556000     -1.412583000
6        2.150921000      3.650593000     -0.931170000
6        4.445711000      2.118903000     -1.341216000
1        3.127737000      0.453917000     -1.589102000
6        3.412804000      4.242863000     -0.849849000
1        1.265077000      4.257675000     -0.769759000
6        4.565537000      3.481644000     -1.057768000
1        5.331635000      1.507467000     -1.491041000
1        3.493234000      5.303691000     -0.626593000
1        5.546472000      3.945173000     -0.995089000
8       -1.199881000      1.220580000      4.689095000
6        2.335007000      0.231597000      2.604726000
6        2.872718000     -0.813549000      3.386050000
6        3.217788000      1.129266000      1.972748000
6        4.252354000     -0.957442000      3.517925000
1        2.195270000     -1.506465000      3.876195000
6        4.594684000      0.978713000      2.112816000
1        2.815634000      1.930772000      1.364718000
6        5.120706000     -0.064275000      2.881104000
1        4.651205000     -1.768226000      4.122299000
1        5.255547000      1.675762000      1.605605000
1        6.196368000     -0.179361000      2.985785000
6       -2.349566000      1.524648000      5.448086000
1       -2.010744000      1.804947000      6.449197000
1       -2.917179000      2.366716000      5.015419000
1       -3.029500000      0.659513000      5.529418000
6        0.386795000      0.337346000     -2.646855000
1        1.414531000      0.282100000     -3.017610000
1       -0.215824000      0.821056000     -3.422542000
6       -0.157240000     -1.074736000     -2.359165000
1       -1.239952000     -1.032728000     -2.220031000
1        0.051225000     -1.754151000     -3.193595000
15       0.494918000     -1.743485000     -0.742008000
6        2.278474000     -2.043214000     -1.106213000
6        3.170250000     -1.977808000     -0.024071000
6        2.802698000     -2.209116000     -2.399928000
6        4.547707000     -2.069829000     -0.224490000
1        2.786535000     -1.819083000      0.977193000
6        4.181646000     -2.295350000     -2.602917000
1        2.140719000     -2.254992000     -3.259551000
6        5.057072000     -2.221373000     -1.516071000
1        5.214036000     -1.992718000      0.629285000
1        4.571883000     -2.413360000     -3.610636000
1        6.130492000     -2.276258000     -1.677728000
6       -0.277695000     -3.411425000     -0.672038000
6        0.168968000     -4.493060000     -1.446217000
6       -1.382137000     -3.587202000      0.176890000
6       -0.487659000     -5.722823000     -1.385120000
1        1.037199000     -4.378258000     -2.089567000
6       -2.042063000     -4.816713000      0.230121000
1       -1.724290000     -2.754599000      0.785987000
6       -1.597209000     -5.885522000     -0.550910000
1       -0.132488000     -6.554902000     -1.987748000
1       -2.898125000     -4.939216000      0.888671000
1       -2.107394000     -6.844171000     -0.505391000

B 9 14 S 20 -0.1000000

-C H P B O 0
6-31g(d)
****
-Cu 0
SDD
F 1 1.0
3.525 1.0
****

Cu
SDD




























































