%nprocshared=64
%mem=16GB
# opt=(calcfc,ts,modredundant,noeigentest) freq=noraman b3lyp/gen
empiricaldispersion=gd3 pseudo=read

TS freq from pre-TS bond frozen

0 1
8        2.935443000     -1.312070000      0.824027000
8        3.073147000      0.962177000      0.879313000
6        4.306452000     -0.998382000      0.461288000
6        4.445710000      0.486746000      0.954382000
6        5.232256000     -2.001707000      1.141546000
6        4.404914000     -1.136534000     -1.065587000
6        4.904430000      0.604449000      2.412264000
6        5.304986000      1.386949000      0.067365000
5        2.207272000     -0.123467000      0.801002000
29       0.270468000      0.015893000      0.215322000
15      -0.560031000     -1.532810000     -1.296674000
6        1.481473000     -0.179854000      3.396669000
6       -0.682927000      0.040310000      2.004905000
6        0.588222000     -0.066360000      2.196942000
1        5.067610000     -2.031399000      2.220683000
1        6.282851000     -1.753425000      0.951296000
1        5.041504000     -3.004079000      0.744070000
1        3.731585000     -0.430805000     -1.562436000
1        4.098816000     -2.146095000     -1.354718000
1        5.425478000     -0.963372000     -1.423040000
1        4.750296000      1.633904000      2.750267000
1        5.967393000      0.360080000      2.515303000
1        4.331720000     -0.056648000      3.066432000
1        5.335457000      2.396208000      0.491710000
1        4.897000000      1.460250000     -0.943140000
1        6.332996000      1.011522000      0.006784000
1        2.178720000      0.674481000      3.424096000
1        2.092710000     -1.097483000      3.341825000
6        0.319683000     -3.066460000     -1.802428000
6       -0.126856000     -3.872709000     -2.864095000
6        1.469015000     -3.439639000     -1.093615000
6        0.574286000     -5.024020000     -3.218743000
1       -1.033089000     -3.607693000     -3.403276000
6        2.168133000     -4.597398000     -1.450264000
1        1.823181000     -2.818499000     -0.277213000
6        1.726045000     -5.387180000     -2.511845000
1        0.222243000     -5.641099000     -4.041378000
1        3.058603000     -4.878806000     -0.893507000
1        2.271219000     -6.285930000     -2.788415000
6       -2.266268000     -2.126071000     -0.928778000
6       -3.340578000     -1.221253000     -0.971047000
6       -2.498242000     -3.424560000     -0.447543000
6       -4.616690000     -1.612834000     -0.569494000
1       -3.184941000     -0.195338000     -1.283964000
6       -3.775475000     -3.810261000     -0.035487000
1       -1.681167000     -4.137555000     -0.392899000
6       -4.840461000     -2.908808000     -0.100029000
1       -5.427791000     -0.890921000     -0.603373000
1       -3.936520000     -4.819138000      0.335492000
1       -5.833276000     -3.211459000      0.221922000
8        0.673121000     -0.189351000      4.558512000
6       -1.958938000      0.228603000      2.643022000
6       -2.201435000      1.369375000      3.439836000
6       -3.032613000     -0.653440000      2.402094000
6       -3.472724000      1.625959000      3.949805000
1       -1.377561000      2.046308000      3.646014000
6       -4.294516000     -0.402330000      2.934312000
1       -2.866702000     -1.527107000      1.781815000
6       -4.530112000      0.744000000      3.700298000
1       -3.637267000      2.514841000      4.554957000
1       -5.103230000     -1.099712000      2.729515000
1       -5.520054000      0.945503000      4.101412000
6        1.439085000     -0.256715000      5.739328000
1        0.737507000     -0.257360000      6.577940000
1        2.048964000     -1.175596000      5.783677000
1        2.116942000      0.608632000      5.841610000
6       -0.780645000     -0.589785000     -2.918328000
1       -1.845771000     -0.375190000     -3.042048000
1       -0.477755000     -1.232439000     -3.751269000
6        0.023877000      0.722685000     -2.931507000
1        1.098397000      0.516200000     -3.000577000
1       -0.243285000      1.337722000     -3.798758000
15      -0.174847000      1.663425000     -1.326962000
6       -1.949386000      2.157924000     -1.338912000
6       -2.571427000      2.264632000     -0.085034000
6       -2.731401000      2.301967000     -2.496844000
6       -3.943161000      2.492256000      0.017837000
1       -1.985251000      2.110850000      0.812651000
6       -4.106499000      2.528743000     -2.396368000
1       -2.280066000      2.215226000     -3.481425000
6       -4.714504000      2.617481000     -1.140701000
1       -4.402053000      2.533914000      1.001725000
1       -4.704380000      2.624281000     -3.299151000
1       -5.787355000      2.775895000     -1.068001000
6        0.773009000      3.200210000     -1.671114000
6        0.266795000      4.245089000     -2.460225000
6        2.069974000      3.300585000     -1.144370000
6        1.052357000      5.365640000     -2.731128000
1       -0.745130000      4.191260000     -2.851989000
6        2.855001000      4.421118000     -1.426024000
1        2.454438000      2.512823000     -0.504339000
6        2.350305000      5.453207000     -2.219174000
1        0.650733000      6.171922000     -3.339613000
1        3.858859000      4.489052000     -1.014049000
1        2.960082000      6.327673000     -2.431468000

B 9 14

-C H P B O 0
6-31g(d)
****
-Cu 0
SDD
F 1 1.0
3.525 1.0
****

Cu
SDD


























































