%nprocshared=64
%mem=16GB
# opt=(calcfc,ts,modredundant,noeigentest) freq=noraman b3lyp/gen
empiricaldispersion=gd3 pseudo=read

TS freq from pre-TS bond frozen

0 1
8       -2.569611000      0.818344000      0.921824000
8       -2.283883000      1.840606000     -1.100989000
6       -3.525904000      1.917839000      0.909575000
6       -3.572590000      2.313649000     -0.612896000
6       -4.848544000      1.419719000      1.489435000
6       -2.936666000      3.010619000      1.814333000
6       -4.659302000      1.581383000     -1.406129000
6       -3.649894000      3.816949000     -0.883594000
5       -1.771820000      0.908901000     -0.213211000
29       0.108507000      0.259549000     -0.278394000
15       1.018667000     -1.084143000      1.532514000
6        0.583460000     -1.991298000     -2.728547000
6       -1.186737000     -0.788847000     -1.308993000
6       -0.007290000     -1.003853000     -1.812838000
1       -5.203943000      0.535114000      0.960207000
1       -5.618402000      2.198402000      1.437085000
1       -4.707761000      1.152523000      2.542251000
1       -1.972033000      3.358408000      1.432835000
1       -2.772482000      2.588637000      2.810595000
1       -3.608667000      3.870644000      1.910088000
1       -4.500001000      1.759784000     -2.473686000
1       -5.656145000      1.947748000     -1.136905000
1       -4.623034000      0.504698000     -1.240876000
1       -3.643646000      3.992008000     -1.964158000
1       -2.798833000      4.347824000     -0.450441000
1       -4.573514000      4.241792000     -0.473826000
1        1.353957000     -2.562498000     -2.183746000
1        1.108347000     -1.471289000     -3.554003000
6        0.103677000     -1.815592000      2.945430000
6        0.644481000     -2.788108000      3.803076000
6       -1.198967000     -1.345040000      3.172236000
6       -0.107653000     -3.283595000      4.867714000
1        1.647643000     -3.167732000      3.626007000
6       -1.948432000     -1.843946000      4.241687000
1       -1.626269000     -0.595435000      2.511301000
6       -1.406701000     -2.812464000      5.087611000
1        0.316304000     -4.038910000      5.524555000
1       -2.959183000     -1.477911000      4.402772000
1       -1.992150000     -3.205217000      5.915038000
6        1.944127000     -2.483208000      0.789021000
6        3.181640000     -2.290747000      0.153190000
6        1.291047000     -3.718254000      0.625292000
6        3.755389000     -3.308275000     -0.608673000
1        3.692416000     -1.334741000      0.210688000
6        1.864478000     -4.732605000     -0.141270000
1        0.322759000     -3.884125000      1.088981000
6        3.099890000     -4.532773000     -0.762080000
1        4.711565000     -3.133820000     -1.095382000
1        1.338926000     -5.676393000     -0.259668000
1        3.546296000     -5.321223000     -1.361828000
8       -0.390260000     -2.886558000     -3.272216000
6       -2.523678000     -1.376263000     -1.487194000
6       -3.276712000     -1.928619000     -0.439415000
6       -3.039864000     -1.435987000     -2.794582000
6       -4.522363000     -2.504201000     -0.694154000
1       -2.888003000     -1.893512000      0.571602000
6       -4.283984000     -2.005752000     -3.048187000
1       -2.441437000     -1.028814000     -3.604261000
6       -5.037219000     -2.534363000     -1.995157000
1       -5.091149000     -2.931218000      0.128061000
1       -4.670181000     -2.031104000     -4.064324000
1       -6.013392000     -2.970937000     -2.189761000
6        0.198911000     -3.912858000     -4.033387000
1       -0.609658000     -4.549843000     -4.405102000
1        0.763135000     -3.518944000     -4.898318000
1        0.888839000     -4.527034000     -3.428782000
6        2.310052000      0.005659000      2.359841000
1        3.307618000     -0.275807000      2.009046000
1        2.289309000     -0.157445000      3.442852000
6        2.030228000      1.482174000      2.027998000
1        1.107620000      1.818972000      2.515367000
1        2.839424000      2.130791000      2.382228000
15       1.711325000      1.711194000      0.200439000
6        3.339026000      1.303420000     -0.564998000
6        3.309790000      0.652365000     -1.807739000
6        4.577193000      1.521761000      0.059551000
6        4.493672000      0.242128000     -2.421435000
1        2.345068000      0.426896000     -2.256112000
6        5.760983000      1.099016000     -0.548939000
1        4.628474000      2.004306000      1.031514000
6        5.721212000      0.460598000     -1.791245000
1        4.454661000     -0.265675000     -3.381414000
1        6.712330000      1.263782000     -0.049868000
1        6.642924000      0.127690000     -2.261156000
6        1.504437000      3.528781000      0.037976000
6        2.495743000      4.450453000      0.410834000
6        0.283266000      4.000183000     -0.467923000
6        2.262500000      5.820554000      0.295552000
1        3.456139000      4.102645000      0.780904000
6        0.053484000      5.373615000     -0.582074000
1       -0.483197000      3.293087000     -0.769905000
6        1.039052000      6.284277000     -0.198116000
1        3.035385000      6.527259000      0.586540000
1       -0.895656000      5.726666000     -0.977043000
1        0.860730000      7.352654000     -0.288438000

B 9 13

-C H P B O 0
6-31g(d)
****
-Cu 0
SDD
F 1 1.0
3.525 1.0
****

Cu
SDD


























































