%nprocshared=32
%mem=16GB
# opt=(modredundant,maxcycle=25) freq b3lyp/gen empiricaldispersion=gd3 pseudo=read

opt freq from SI

0 1
8       -2.245929000      0.958619000      1.053489000
8       -3.049758000      1.143796000     -1.067395000
6       -3.552703000      1.570586000      1.195824000
6       -4.208531000      1.272038000     -0.197655000
6       -4.248121000      0.930503000      2.395710000
6       -3.317507000      3.065568000      1.449561000
6       -4.946365000     -0.073233000     -0.238863000
6       -5.102926000      2.380671000     -0.746036000
5       -1.934908000      0.808564000     -0.299373000
29      -0.081479000      0.241252000     -0.890049000
15       0.606503000     -0.881300000      1.372760000
6        2.419921000     -1.348606000     -2.271885000
6       -0.216069000     -1.311818000     -2.160496000
6        1.001985000     -1.007578000     -2.076211000
1       -4.254471000     -0.158607000      2.316196000
1       -5.279594000      1.290060000      2.492054000
1       -3.708471000      1.191469000      3.312216000
1       -2.782527000      3.527346000      0.614254000
1       -2.699928000      3.179612000      2.346832000
1       -4.257432000      3.605041000      1.609519000
1       -5.219219000     -0.297982000     -1.274939000
1       -5.861265000     -0.052218000      0.363105000
1       -4.304383000     -0.880973000      0.124163000
1       -5.490141000      2.088124000     -1.727508000
1       -4.550044000      3.315044000     -0.867899000
1       -5.955970000      2.561054000     -0.081058000
1        2.986315000     -1.134626000     -1.353234000
1        2.865327000     -0.728243000     -3.071542000
6       -0.799971000     -1.742375000      2.180627000
6       -0.922632000     -1.935359000      3.564258000
6       -1.806163000     -2.230720000      1.332961000
6       -2.041574000     -2.582683000      4.091563000
1       -0.142455000     -1.585238000      4.235643000
6       -2.916795000     -2.893101000      1.857922000
1       -1.725447000     -2.071901000      0.261988000
6       -3.040941000     -3.061323000      3.239187000
1       -2.131244000     -2.718880000      5.166323000
1       -3.684206000     -3.267568000      1.185481000
1       -3.910183000     -3.567047000      3.651720000
6        2.033092000     -2.021084000      1.615068000
6        3.329965000     -1.541549000      1.347627000
6        1.871036000     -3.387122000      1.894838000
6        4.430095000     -2.397117000      1.383715000
1        3.485863000     -0.495705000      1.095379000
6        2.973500000     -4.244414000      1.919072000
1        0.880266000     -3.783157000      2.096190000
6        4.256516000     -3.754974000      1.667912000
1        5.422289000     -2.001120000      1.181520000
1        2.826737000     -5.298744000      2.139545000
1        5.112578000     -4.424023000      1.690160000
8        2.527826000     -2.729383000     -2.607149000
6       -1.282681000     -2.222538000     -2.514171000
6       -0.931194000     -3.537553000     -2.883162000
6       -2.638098000     -1.861609000     -2.459172000
6       -1.924358000     -4.468930000     -3.176427000
1        0.121422000     -3.803421000     -2.921463000
6       -3.624097000     -2.801507000     -2.759215000
1       -2.898585000     -0.848809000     -2.177007000
6       -3.274413000     -4.106923000     -3.113442000
1       -1.645021000     -5.482731000     -3.452632000
1       -4.671032000     -2.511525000     -2.710978000
1       -4.046286000     -4.838012000     -3.340127000
6        3.864897000     -3.185758000     -2.555297000
1        3.853233000     -4.242294000     -2.836553000
1        4.513372000     -2.638013000     -3.260665000
1        4.286508000     -3.088717000     -1.542358000
6        1.050200000      0.571699000      2.486713000
1        2.125301000      0.513354000      2.681850000
1        0.540017000      0.487686000      3.452160000
6        0.690887000      1.917229000      1.825343000
1       -0.392441000      2.057432000      1.848632000
1        1.151277000      2.758388000      2.357187000
15       1.100319000      1.977816000      0.004810000
6        2.942671000      2.031220000     -0.044330000
6        3.559525000      1.701570000     -1.262079000
6        3.755496000      2.303560000      1.067466000
6        4.948067000      1.643535000     -1.368874000
1        2.937095000      1.471143000     -2.122689000
6        5.147574000      2.232179000      0.965872000
1        3.310503000      2.562045000      2.023361000
6        5.746646000      1.900505000     -0.250609000
1        5.406419000      1.383665000     -2.319368000
1        5.762155000      2.434540000      1.839169000
1        6.828904000      1.840191000     -0.326921000
6        0.584565000      3.687139000     -0.436445000
6        1.289890000      4.818429000      0.002196000
6       -0.576842000      3.857640000     -1.205503000
6        0.832541000      6.098676000     -0.309930000
1        2.203212000      4.698744000      0.579426000
6       -1.035062000      5.141167000     -1.511928000
1       -1.123582000      2.984682000     -1.551186000
6       -0.333235000      6.262011000     -1.064113000
1        1.386071000      6.968889000      0.033317000
1       -1.937427000      5.261241000     -2.105636000
1       -0.688276000      7.260360000     -1.306016000

B 9 13 S 20 -0.2000000

-C H P B O 0
6-31g(d)
****
-Cu 0
SDD
F 1 1.0
3.525 1.0
****

Cu
SDD




























































